results/2026-03-05/bilevel_comparisons_single_period/solution_bus_motivation_c_efficiency.csv
bus_id,vm_avg,z_voltage
1,1.0044883401629943,1.0
2,1.0044883511413636,1.0
3,1.0056978022153766,1.0
4,1.0046684327112823,1.0
5,1.0056978022153766,1.0
6,1.014889156509222,1.0
7,1.004834277705614,1.0
8,0.0,0.0
9,1.0069087694884233,1.0
10,1.0069087694884233,1.0
11,1.0046714285234055,1.0
12,1.0056980710382193,1.0
13,1.0044883401629943,1.0
14,0.0,0.0
15,1.0056980710382193,1.0
16,1.0069087694884233,1.0
17,1.004834277705614,1.0
18,1.0044883401629943,1.0
19,0.0,0.0
20,1.0056978022153766,1.0
